data_MFI.cm
_audit_creation_method         'generated by CrystalMaker 6.3.5'
_publ_section_comment
;


TITLE Code MFI

;
_cell_length_a                  20.0900
_cell_length_b                  19.7380
_cell_length_c                  13.1420
_cell_angle_alpha               90.0000
_cell_angle_beta                90.0000
_cell_angle_gamma               90.0000

_symmetry_space_group_name_H-M     'P n m a'
_symmetry_Int_Tables_number         62
_symmetry_cell_setting             orthorhombic


loop_
_atom_site_type_symbol
_atom_site_label
_atom_site_fract_x
_atom_site_fract_y
_atom_site_fract_z
  O       O1      0.5012    0.0699    0.7018
  O       O2      0.3875    0.0743    0.8008
  O       O3      0.3995    0.1366    0.6251
  O       O4      0.3972    0.0034    0.6326
  O       O5      0.3290    0.0385    0.9722
  O       O6      0.3297    0.9555    0.8155
  O       O7      0.2571    0.0663    0.8106
  O       O8      0.2910    0.1296    0.1060
  O       O9      0.2034    0.0455    0.0275
  O      O10      0.2936    0.0010    0.1564
  O      O11      0.1075    0.1265    0.0883
  O      O12      0.0846    0.0370    0.9443
  O      O13      0.1301    0.0781    0.7670
  O      O14      0.0728    0.9589    0.7832
  O      O15      0.2201    0.1313    0.6456
  O      O16      0.4911    0.8548    0.7169
  O      O17      0.3681    0.8311    0.7743
  O      O18      0.4263    0.7500    0.6431
  O      O19      0.3217    0.8611    0.9561
  O      O20      0.2410    0.8582    0.7990
  O      O21      0.2943    0.7500    0.0579
  O      O22      0.1976    0.8313    0.0003
  O      O23      0.0948    0.7500    0.0205
  O      O24      0.0809    0.8670    0.9275
  O      O25      0.1177    0.8370    0.7406
  O      O26      0.2116    0.7500    0.6913
  Si       T1      0.4214    0.0711    0.6898
  Si       T2      0.3259    0.0336    0.8500
  Si       T3      0.2792    0.0536    0.0655
  Si       T4      0.1246    0.0514    0.0481
  Si       T5      0.0721    0.0360    0.8233
  Si       T6      0.2034    0.0687    0.7197
  Si       T7      0.4195    0.8274    0.6805
  Si       T8      0.3152    0.8765    0.8361
  Si       T9      0.2733    0.8278    0.0402
  Si      T10      0.1185    0.8279    0.0183
  Si      T11      0.0657    0.8794    0.8087
  Si      T12      0.1947    0.8288    0.7092

